/TITLE Model: VIER2_SH
/COM Finite Element Mesh - PTC - ANSYS 11.0 - VIER2_SH
/PREP7
/NOPR
MP,EX,1,2.060000e+05
MP,ALPX,1,1.170000e-05
MP,NUXY,1,3.000000e-01
MP,DENS,1,7.827082e-09
MP,KXX,1,4.301252e+01
MP,C,1,4.733410e+08
LOCAL,11,0,0.000000,0.000000,0.000000,0.000000,0.000000,0.000000
LOCAL,12,0,0.000000,0.000000,0.000000,0.000000,0.000000,0.000000
LOCAL,13,0,0.000000,0.000000,0.000000,0.000000,0.000000,0.000000
CSYS,11
ET,1,93
R,1,15,15,15
N,1,-142.500000,142.500000,0.000000
N,2,-142.500000,-142.500000,0.000000
N,3,-142.500000,142.500000,1000.000000
N,4,-142.500000,-142.500000,1000.000000
N,5,-142.500000,95.000000,0.000000
N,6,-142.500000,47.500000,0.000000
N,7,-142.500000,0.000000,0.000000
N,8,-142.500000,-47.500000,0.000000
N,9,-142.500000,-95.000000,0.000000
N,10,-142.500000,142.500000,50.000000
N,11,-142.500000,142.500000,100.000000
N,12,-142.500000,142.500000,150.000000
N,13,-142.500000,142.500000,200.000000
N,14,-142.500000,142.500000,250.000000
N,15,-142.500000,142.500000,300.000000
N,16,-142.500000,142.500000,350.000000
N,17,-142.500000,142.500000,400.000000
N,18,-142.500000,142.500000,450.000000
N,19,-142.500000,142.500000,500.000000
N,20,-142.500000,142.500000,550.000000
! ... 1644 like lines cut
CSYS,12
NROTAT,3
NROTAT,4
NROTAT,29
NROTAT,30
NROTAT,31
NROTAT,32
NROTAT,33
NROTAT,130
NROTAT,136
NROTAT,137
NROTAT,138
NROTAT,139
NROTAT,140
NROTAT,237
NROTAT,243
NROTAT,244
NROTAT,245
NROTAT,246
NROTAT,247
NROTAT,348
! ... 28 like lines cut
SHPP,LSTET,ON
SHPP,OFF
TYPE,1
REAL,1
MAT,1
EN,1,125,112,49,49,724,565,49,566
EN,2,125,119,112,112,742,723,112,724
EN,3,125,120,119,119,744,741,119,742
EN,4,125,126,120,120,755,745,120,744
EN,5,125,50,126,126,568,569,126,755
EN,6,125,49,50,50,566,564,50,568
EN,7,120,117,119,119,737,736,119,741
EN,8,120,118,117,117,738,735,117,737
EN,9,120,123,118,118,743,740,118,738
EN,10,120,126,123,123,745,751,123,743
EN,11,115,121,116,116,732,733,116,730
EN,12,115,118,121,121,731,739,121,732
EN,13,115,114,118,118,727,729,118,731
EN,14,115,26,114,114,501,500,114,727
EN,15,115,27,26,26,503,499,26,501
EN,16,115,116,27,27,730,504,27,503
EN,17,110,109,46,46,720,556,46,557
EN,18,110,100,109,109,702,701,109,720
EN,19,110,103,100,100,711,700,100,702
EN,20,110,111,103,103,721,712,103,711
! ... 788 like lines cut
SHPP,ON
CHECK
F,1,FX,-2777.7778
F,1,FY,-2777.7778
F,2,FX,2777.7778
F,2,FY,-2777.7778
D,3,UX,0
D,3,UY,0
D,3,UZ,0
D,4,UX,0
D,4,UY,0
D,4,UZ,0
F,5,FY,-5555.5556
F,6,FY,-5555.5556
F,7,FY,-5555.5556
F,8,FY,-5555.5556
F,9,FY,-5555.5556
D,29,UX,0
D,29,UY,0
D,29,UZ,0
D,30,UX,0
D,30,UY,0
D,30,UZ,0
D,31,UX,0
D,31,UY,0
D,31,UZ,0
D,32,UX,0
D,32,UY,0
D,32,UZ,0
D,33,UX,0
D,33,UY,0
D,33,UZ,0
F,129,FX,2777.7778
F,129,FY,2777.7778
D,130,UX,0
D,130,UY,0
D,130,UZ,0
F,131,FX,5555.5556
F,132,FX,5555.5556
F,133,FX,5555.5556
F,134,FX,5555.5556
F,135,FX,5555.5556
D,136,UX,0
D,136,UY,0
D,136,UZ,0
D,137,UX,0
D,137,UY,0
D,137,UZ,0
D,138,UX,0
D,138,UY,0
D,138,UZ,0
D,139,UX,0
D,139,UY,0
D,139,UZ,0
D,140,UX,0
D,140,UY,0
D,140,UZ,0
F,236,FX,-2777.7778
F,236,FY,2777.7778
D,237,UX,0
D,237,UY,0
D,237,UZ,0
F,238,FY,5555.5556
F,239,FY,5555.5556
F,240,FY,5555.5556
F,241,FY,5555.5556
F,242,FY,5555.5556
D,243,UX,0
D,243,UY,0
D,243,UZ,0
D,244,UX,0
D,244,UY,0
D,244,UZ,0
D,245,UX,0
D,245,UY,0
D,245,UZ,0
D,246,UX,0
D,246,UY,0
D,246,UZ,0
D,247,UX,0
D,247,UY,0
D,247,UZ,0
F,343,FX,-5555.5556
F,344,FX,-5555.5556
F,345,FX,-5555.5556
F,346,FX,-5555.5556
F,347,FX,-5555.5556
D,348,UX,0
D,348,UY,0
D,348,UZ,0
D,349,UX,0
D,349,UY,0
D,349,UZ,0
D,350,UX,0
D,350,UY,0
D,350,UZ,0
D,351,UX,0
D,351,UY,0
D,351,UZ,0
D,352,UX,0
D,352,UY,0
D,352,UZ,0
F,429,FY,-11111.111
F,431,FY,-11111.111
D,434,UX,0
D,434,UY,0
D,434,UZ,0
D,435,UX,0
D,435,UY,0
D,435,UZ,0
F,437,FY,-11111.111
F,440,FY,-11111.111
F,443,FY,-11111.111
F,446,FY,-11111.111
D,507,UX,0
D,507,UY,0
D,507,UZ,0
D,509,UX,0
D,509,UY,0
D,509,UZ,0
D,512,UX,0
D,512,UY,0
D,512,UZ,0
D,515,UX,0
D,515,UY,0
D,515,UZ,0
F,758,FX,11111.111
D,760,UX,0
D,760,UY,0
D,760,UZ,0
F,762,FX,11111.111
F,764,FX,11111.111
F,766,FX,11111.111
F,769,FX,11111.111
F,772,FX,11111.111
D,777,UX,0
D,777,UY,0
D,777,UZ,0
D,780,UX,0
D,780,UY,0
D,780,UZ,0
D,781,UX,0
D,781,UY,0
D,781,UZ,0
D,784,UX,0
D,784,UY,0
D,784,UZ,0
D,787,UX,0
D,787,UY,0
D,787,UZ,0
F,1067,FY,11111.111
D,1069,UX,0
D,1069,UY,0
D,1069,UZ,0
F,1071,FY,11111.111
F,1073,FY,11111.111
F,1075,FY,11111.111
F,1078,FY,11111.111
F,1081,FY,11111.111
D,1086,UX,0
D,1086,UY,0
D,1086,UZ,0
D,1089,UX,0
D,1089,UY,0
D,1089,UZ,0
D,1090,UX,0
D,1090,UY,0
D,1090,UZ,0
D,1093,UX,0
D,1093,UY,0
D,1093,UZ,0
D,1096,UX,0
D,1096,UY,0
D,1096,UZ,0
F,1376,FX,-11111.111
F,1378,FX,-11111.111
F,1380,FX,-11111.111
F,1383,FX,-11111.111
F,1386,FX,-11111.111
F,1390,FX,-11111.111
D,1392,UX,0
D,1392,UY,0
D,1392,UZ,0
D,1395,UX,0
D,1395,UY,0
D,1395,UZ,0
D,1396,UX,0
D,1396,UY,0
D,1396,UZ,0
D,1399,UX,0
D,1399,UY,0
D,1399,UZ,0
D,1402,UX,0
D,1402,UY,0
D,1402,UZ,0
D,1407,UX,0
D,1407,UY,0
D,1407,UZ,0
/GOPR
FINISH
