$ Finite Element Mesh - PTC - MSC/NASTRAN 2005 - VIER1_SH
$
SOL SESTATIC
TIME 60
CEND
DISPLACEMENT = ALL
SPCFORCES = ALL
FORCE = ALL
OLOAD = ALL
STRESS(SORT1,REAL,VONMISES,BILIN) = ALL
STRAIN(SORT1,REAL,VONMISES,BILIN,FIBER) = ALL
ESE = ALL
SUBCASE = 0
   SPC = 258
   LOAD = 58
BEGIN BULK
PARAM,POST,0
PARAM,AUTOSPC,YES
$ Global Coordinate System of the model
CORD2R,1,0,0.,0.,0.,0.,0.,1.,
,1.,0.,0.
$ ----------------------------------------
$ Mesh "VIER1_SH"
$ Included Components :
$   VIER1_SH
$ Coordinate System for grid coordinates
CORD2R,2,1,0.,0.,0.,0.,0.,1.,
,1.,0.,0.
$ Coordinate System for default grid displacement
CORD2R,3,2,0.,0.,0.,0.,0.,1.,
,1.,0.,0.
MAT1,1,206000.,,0.3,7.82708E-9,1.17E-5,,,
PSHELL,1,1,15.,1,,1
GRID,1,2,-142.5,142.5,0.,3
GRID,2,2,-142.5,-142.5,0.,3
GRID,3,2,-142.5,142.5,1000.,2
GRID,4,2,-142.5,-142.5,1000.,2
GRID,5,2,-142.5,95.,0.,3
GRID,6,2,-142.5,47.5,0.,3
GRID,7,2,-142.5,0.,0.,3
GRID,8,2,-142.5,-47.5,0.,3
GRID,9,2,-142.5,-95.,0.,3
GRID,10,2,-142.5,142.5,50.,3
GRID,11,2,-142.5,142.5,100.,3
GRID,12,2,-142.5,142.5,150.,3
GRID,13,2,-142.5,142.5,200.,3
GRID,14,2,-142.5,142.5,250.,3
GRID,15,2,-142.5,142.5,300.,3
GRID,16,2,-142.5,142.5,350.,3
GRID,17,2,-142.5,142.5,400.,3
GRID,18,2,-142.5,142.5,450.,3
GRID,19,2,-142.5,142.5,500.,3
GRID,20,2,-142.5,142.5,550.,3
$ ... 1644 like lines cut
CTRIA6,1,1,125,112,49,724,565,566,
CTRIA6,2,1,125,119,112,742,723,724,
CTRIA6,3,1,125,120,119,744,741,742,
CTRIA6,4,1,125,126,120,755,745,744,
CTRIA6,5,1,125,50,126,568,569,755,
CTRIA6,6,1,125,49,50,566,564,568,
CTRIA6,7,1,120,117,119,737,736,741,
CTRIA6,8,1,120,118,117,738,735,737,
CTRIA6,9,1,120,123,118,743,740,738,
CTRIA6,10,1,120,126,123,745,751,743,
CTRIA6,11,1,115,121,116,732,733,730,
CTRIA6,12,1,115,118,121,731,739,732,
CTRIA6,13,1,115,114,118,727,729,731,
CTRIA6,14,1,115,26,114,501,500,727,
CTRIA6,15,1,115,27,26,503,499,501,
CTRIA6,16,1,115,116,27,730,504,503,
CTRIA6,17,1,110,109,46,720,556,557,
CTRIA6,18,1,110,100,109,702,701,720,
CTRIA6,19,1,110,103,100,711,700,702,
CTRIA6,20,1,110,111,103,721,712,711,
$ ... 788 like lines cut
$ ----------------------------------------
FORCE,58,1,1,1.0,-2777.78,-2777.78,0.0
FORCE,58,2,1,1.0,2777.78,-2777.78,0.0
SPC,258,3,1,0.
SPC,258,3,2,0.
SPC,258,3,3,0.
SPC,258,4,1,0.
SPC,258,4,2,0.
SPC,258,4,3,0.
FORCE,58,5,1,1.0,0.0,-5555.56,0.0
FORCE,58,6,1,1.0,0.0,-5555.56,0.0
FORCE,58,7,1,1.0,0.0,-5555.56,0.0
FORCE,58,8,1,1.0,0.0,-5555.56,0.0
FORCE,58,9,1,1.0,0.0,-5555.56,0.0
SPC,258,29,1,0.
SPC,258,29,2,0.
SPC,258,29,3,0.
SPC,258,30,1,0.
SPC,258,30,2,0.
SPC,258,30,3,0.
SPC,258,31,1,0.
SPC,258,31,2,0.
SPC,258,31,3,0.
SPC,258,32,1,0.
SPC,258,32,2,0.
SPC,258,32,3,0.
SPC,258,33,1,0.
SPC,258,33,2,0.
SPC,258,33,3,0.
FORCE,58,129,1,1.0,2777.78,2777.78,0.0
SPC,258,130,1,0.
SPC,258,130,2,0.
SPC,258,130,3,0.
FORCE,58,131,1,1.0,5555.56,0.0,0.0
FORCE,58,132,1,1.0,5555.56,0.0,0.0
FORCE,58,133,1,1.0,5555.56,0.0,0.0
FORCE,58,134,1,1.0,5555.56,0.0,0.0
FORCE,58,135,1,1.0,5555.56,0.0,0.0
SPC,258,136,1,0.
SPC,258,136,2,0.
SPC,258,136,3,0.
SPC,258,137,1,0.
SPC,258,137,2,0.
SPC,258,137,3,0.
SPC,258,138,1,0.
SPC,258,138,2,0.
SPC,258,138,3,0.
SPC,258,139,1,0.
SPC,258,139,2,0.
SPC,258,139,3,0.
SPC,258,140,1,0.
SPC,258,140,2,0.
SPC,258,140,3,0.
FORCE,58,236,1,1.0,-2777.78,2777.78,0.0
SPC,258,237,1,0.
SPC,258,237,2,0.
SPC,258,237,3,0.
FORCE,58,238,1,1.0,0.0,5555.56,0.0
FORCE,58,239,1,1.0,0.0,5555.56,0.0
FORCE,58,240,1,1.0,0.0,5555.56,0.0
FORCE,58,241,1,1.0,0.0,5555.56,0.0
FORCE,58,242,1,1.0,0.0,5555.56,0.0
SPC,258,243,1,0.
SPC,258,243,2,0.
SPC,258,243,3,0.
SPC,258,244,1,0.
SPC,258,244,2,0.
SPC,258,244,3,0.
SPC,258,245,1,0.
SPC,258,245,2,0.
SPC,258,245,3,0.
SPC,258,246,1,0.
SPC,258,246,2,0.
SPC,258,246,3,0.
SPC,258,247,1,0.
SPC,258,247,2,0.
SPC,258,247,3,0.
FORCE,58,343,1,1.0,-5555.56,0.0,0.0
FORCE,58,344,1,1.0,-5555.56,0.0,0.0
FORCE,58,345,1,1.0,-5555.56,0.0,0.0
FORCE,58,346,1,1.0,-5555.56,0.0,0.0
FORCE,58,347,1,1.0,-5555.56,0.0,0.0
SPC,258,348,1,0.
SPC,258,348,2,0.
SPC,258,348,3,0.
SPC,258,349,1,0.
SPC,258,349,2,0.
SPC,258,349,3,0.
SPC,258,350,1,0.
SPC,258,350,2,0.
SPC,258,350,3,0.
SPC,258,351,1,0.
SPC,258,351,2,0.
SPC,258,351,3,0.
SPC,258,352,1,0.
SPC,258,352,2,0.
SPC,258,352,3,0.
FORCE,58,429,1,1.0,0.0,-11111.1,0.0
FORCE,58,431,1,1.0,0.0,-11111.1,0.0
SPC,258,434,1,0.
SPC,258,434,2,0.
SPC,258,434,3,0.
SPC,258,435,1,0.
SPC,258,435,2,0.
SPC,258,435,3,0.
FORCE,58,437,1,1.0,0.0,-11111.1,0.0
FORCE,58,440,1,1.0,0.0,-11111.1,0.0
FORCE,58,443,1,1.0,0.0,-11111.1,0.0
FORCE,58,446,1,1.0,0.0,-11111.1,0.0
SPC,258,507,1,0.
SPC,258,507,2,0.
SPC,258,507,3,0.
SPC,258,509,1,0.
SPC,258,509,2,0.
SPC,258,509,3,0.
SPC,258,512,1,0.
SPC,258,512,2,0.
SPC,258,512,3,0.
SPC,258,515,1,0.
SPC,258,515,2,0.
SPC,258,515,3,0.
FORCE,58,758,1,1.0,11111.1,0.0,0.0
SPC,258,760,1,0.
SPC,258,760,2,0.
SPC,258,760,3,0.
FORCE,58,762,1,1.0,11111.1,0.0,0.0
FORCE,58,764,1,1.0,11111.1,0.0,0.0
FORCE,58,766,1,1.0,11111.1,0.0,0.0
FORCE,58,769,1,1.0,11111.1,0.0,0.0
FORCE,58,772,1,1.0,11111.1,0.0,0.0
SPC,258,777,1,0.
SPC,258,777,2,0.
SPC,258,777,3,0.
SPC,258,780,1,0.
SPC,258,780,2,0.
SPC,258,780,3,0.
SPC,258,781,1,0.
SPC,258,781,2,0.
SPC,258,781,3,0.
SPC,258,784,1,0.
SPC,258,784,2,0.
SPC,258,784,3,0.
SPC,258,787,1,0.
SPC,258,787,2,0.
SPC,258,787,3,0.
FORCE,58,1067,1,1.0,0.0,11111.1,0.0
SPC,258,1069,1,0.
SPC,258,1069,2,0.
SPC,258,1069,3,0.
FORCE,58,1071,1,1.0,0.0,11111.1,0.0
FORCE,58,1073,1,1.0,0.0,11111.1,0.0
FORCE,58,1075,1,1.0,0.0,11111.1,0.0
FORCE,58,1078,1,1.0,0.0,11111.1,0.0
FORCE,58,1081,1,1.0,0.0,11111.1,0.0
SPC,258,1086,1,0.
SPC,258,1086,2,0.
SPC,258,1086,3,0.
SPC,258,1089,1,0.
SPC,258,1089,2,0.
SPC,258,1089,3,0.
SPC,258,1090,1,0.
SPC,258,1090,2,0.
SPC,258,1090,3,0.
SPC,258,1093,1,0.
SPC,258,1093,2,0.
SPC,258,1093,3,0.
SPC,258,1096,1,0.
SPC,258,1096,2,0.
SPC,258,1096,3,0.
FORCE,58,1376,1,1.0,-11111.1,0.0,0.0
FORCE,58,1378,1,1.0,-11111.1,0.0,0.0
FORCE,58,1380,1,1.0,-11111.1,0.0,0.0
FORCE,58,1383,1,1.0,-11111.1,0.0,0.0
FORCE,58,1386,1,1.0,-11111.1,0.0,0.0
FORCE,58,1390,1,1.0,-11111.1,0.0,0.0
SPC,258,1392,1,0.
SPC,258,1392,2,0.
SPC,258,1392,3,0.
SPC,258,1395,1,0.
SPC,258,1395,2,0.
SPC,258,1395,3,0.
SPC,258,1396,1,0.
SPC,258,1396,2,0.
SPC,258,1396,3,0.
SPC,258,1399,1,0.
SPC,258,1399,2,0.
SPC,258,1399,3,0.
SPC,258,1402,1,0.
SPC,258,1402,2,0.
SPC,258,1402,3,0.
SPC,258,1407,1,0.
SPC,258,1407,2,0.
SPC,258,1407,3,0.
ENDDATA
