$ Finite Element Mesh - PTC - MSC/NASTRAN 2005 - KURBELWELLE
$
SOL SESTATIC
TIME 60
CEND
DISPLACEMENT = ALL
SPCFORCES = ALL
FORCE = ALL
OLOAD = ALL
STRESS(SORT1,REAL,VONMISES,BILIN) = ALL
STRAIN(SORT1,REAL,VONMISES,BILIN,FIBER) = ALL
ESE = ALL
SUBCASE = 0
   LOAD = 3
SUBCASE = 1
   SPC = 209
   LOAD = 9
BEGIN BULK
PARAM,POST,0
PARAM,AUTOSPC,YES
$ Global Coordinate System of the model
CORD2R,1,0,0.,0.,0.,0.,0.,1.,
,1.,0.,0.
$ ----------------------------------------
$ Mesh "KURBELWELLE"
$ Included Components :
$   KURBELWELLE
$ Coordinate System for grid coordinates
CORD2R,2,1,0.,0.,0.,0.,0.,1.,
,1.,0.,0.
$ Coordinate System for default grid displacement
CORD2R,3,2,0.,0.,0.,0.,0.,1.,
,1.,0.,0.
MAT1,1,206000.,,0.3,7.82708E-9,1.17E-5,,,
PSOLID,1,1
GRID,1,2,-10.,-40.,-5.5,3
GRID,2,2,10.,-40.,-5.5,3
GRID,3,2,-10.,-40.,5.5,3
GRID,4,2,10.,-40.,5.5,3
GRID,5,2,-8.92904,-44.5025,-5.5,3
GRID,6,2,-5.3941,-48.4204,-5.5,3
GRID,7,2,-0.33424,-49.9944,-5.5,3
GRID,8,2,4.81947,-48.762,-5.5,3
GRID,9,2,8.60827,-45.089,-5.5,3
GRID,10,2,-10.,-40.,0.,3
GRID,11,2,-8.92904,-44.5025,5.5,3
GRID,12,2,-5.3941,-48.4204,5.5,3
GRID,13,2,-0.33424,-49.9944,5.5,3
GRID,14,2,4.81947,-48.762,5.5,3
GRID,15,2,8.60827,-45.089,5.5,3
GRID,16,2,10.,-40.,0.,3
GRID,17,2,-7.67275,-46.4132,0.0437473,3
GRID,18,2,-3.07808,-49.5145,0.0758896,3
GRID,19,2,2.24499,-49.7447,0.0576107,3
GRID,20,2,6.81097,-47.3219,0.201928,3
$ ... 17781 like lines cut
CTETRA,1,1,1368,1369,1370,1371,11280,11287,
,11281,11282,11288,11291
CTETRA,2,1,1372,1102,1373,1368,9694,9695,
,11308,11283,9692,11284
CTETRA,3,1,1368,1371,1071,1069,11282,9498,
,9497,9486,9488,9485
CTETRA,4,1,1368,1371,1069,1369,11282,9488,
,9486,11280,11288,9487
CTETRA,5,1,1368,1374,1375,1371,11285,11319,
,11286,11282,11301,11302
CTETRA,6,1,1376,1377,433,624,11333,5398,
,5397,6663,6664,5396
CTETRA,7,1,1376,624,1378,1377,6663,6665,
,11334,11333,6664,11340
CTETRA,8,1,1376,430,1379,432,5385,5386,
,11335,5393,5383,5394
CTETRA,9,1,1376,1380,1378,1379,11336,11348,
,11334,11335,11354,11347
CTETRA,10,1,1381,1382,1383,1384,11366,11376,
,11367,11368,11377,11392
CTETRA,11,1,186,1385,654,659,3843,6853,
,3841,3842,6877,6852
CTETRA,12,1,1384,1386,247,248,11400,4220,
,4219,4226,4227,4216
CTETRA,13,1,1384,1387,1388,1389,11401,11416,
,11402,11403,11417,11425
CTETRA,14,1,1384,247,1390,1391,4219,4221,
,11404,11405,4222,11437
CTETRA,15,1,1384,1390,664,1391,11404,6913,
,6912,11405,11437,6914
CTETRA,16,1,1392,1393,1394,1395,11443,11454,
,11444,11445,11455,11470
CTETRA,17,1,1392,1393,1396,1394,11443,11456,
,11446,11444,11454,11471
CTETRA,18,1,1392,1397,1398,1399,11447,11504,
,11448,11449,11505,11510
CTETRA,19,1,1396,1392,1400,1397,11446,11450,
,11496,11494,11447,11506
CTETRA,20,1,1400,1397,1401,1396,11506,11507,
,11522,11496,11494,11497
$ ... 22378 like lines cut
$ ----------------------------------------
FORCE,3,1,1,1.0,0.0,-18.2115,0.0
FORCE,3,2,1,1.0,0.0,-22.2452,0.0
FORCE,3,3,1,1.0,0.0,-18.2115,0.0
FORCE,3,4,1,1.0,0.0,-28.2079,0.0
FORCE,3,5,1,1.0,0.0,-37.6002,0.0
FORCE,3,6,1,1.0,0.0,-36.4474,0.0
FORCE,3,7,1,1.0,0.0,-36.0483,0.0
FORCE,3,8,1,1.0,0.0,-36.0454,0.0
FORCE,3,9,1,1.0,0.0,-46.1206,0.0
FORCE,3,10,1,1.0,0.0,-87.5182,0.0
FORCE,3,11,1,1.0,0.0,-37.2507,0.0
FORCE,3,12,1,1.0,0.0,-35.6601,0.0
FORCE,3,13,1,1.0,0.0,-35.1888,0.0
FORCE,3,14,1,1.0,0.0,-34.3743,0.0
FORCE,3,15,1,1.0,0.0,-29.1055,0.0
FORCE,3,16,1,1.0,0.0,-81.4083,0.0
FORCE,3,17,1,1.0,0.0,-78.9981,0.0
FORCE,3,18,1,1.0,0.0,-72.3399,0.0
FORCE,3,19,1,1.0,0.0,-70.6507,0.0
FORCE,3,20,1,1.0,0.0,-66.3762,0.0
$ ... 144 like lines cut
SPC,209,1164,1,0.
SPC,209,1164,2,0.
SPC,209,1165,1,0.
SPC,209,1165,2,0.
SPC,209,1166,1,0.
SPC,209,1166,2,0.
SPC,209,1167,1,0.
SPC,209,1167,2,0.
SPC,209,1168,1,0.
SPC,209,1168,2,0.
SPC,209,1169,1,0.
SPC,209,1169,2,0.
SPC,209,1170,1,0.
SPC,209,1170,2,0.
SPC,209,1171,1,0.
SPC,209,1171,2,0.
SPC,209,1172,1,0.
SPC,209,1172,2,0.
SPC,209,1173,1,0.
SPC,209,1173,2,0.
$ ... 93 like lines cut
FORCE,9,2615,1,1.0,0.0,-20.6576,0.0
FORCE,9,2616,1,1.0,0.0,-36.4229,0.0
FORCE,9,2617,1,1.0,0.0,-15.7653,0.0
FORCE,9,2626,1,1.0,0.0,-23.5489,0.0
FORCE,9,2627,1,1.0,0.0,-44.4903,0.0
FORCE,9,2628,1,1.0,0.0,-20.9415,0.0
FORCE,9,2640,1,1.0,0.0,-36.4229,0.0
FORCE,9,2641,1,1.0,0.0,-20.6576,0.0
FORCE,9,2642,1,1.0,0.0,-15.7653,0.0
FORCE,9,2652,1,1.0,0.0,-18.7082,0.0
FORCE,9,2653,1,1.0,0.0,-37.7076,0.0
FORCE,9,2654,1,1.0,0.0,-35.4743,0.0
FORCE,9,2655,1,1.0,0.0,-20.9415,0.0
FORCE,9,2668,1,1.0,0.0,-23.7877,0.0
FORCE,9,2669,1,1.0,0.0,-51.4127,0.0
FORCE,9,2670,1,1.0,0.0,-54.5427,0.0
FORCE,9,2680,1,1.0,0.0,-24.0277,0.0
FORCE,9,2681,1,1.0,0.0,-48.8672,0.0
FORCE,9,2682,1,1.0,0.0,-49.1072,0.0
FORCE,9,2690,1,1.0,0.0,-23.9493,0.0
$ ... 68 like lines cut
SPC,209,10058,1,0.
SPC,209,10058,2,0.
SPC,209,10059,1,0.
SPC,209,10059,2,0.
SPC,209,10060,1,0.
SPC,209,10060,2,0.
SPC,209,10063,1,0.
SPC,209,10063,2,0.
SPC,209,10064,1,0.
SPC,209,10064,2,0.
SPC,209,10065,1,0.
SPC,209,10065,2,0.
SPC,209,10069,1,0.
SPC,209,10069,2,0.
SPC,209,10070,1,0.
SPC,209,10070,2,0.
SPC,209,10071,1,0.
SPC,209,10071,2,0.
SPC,209,10072,1,0.
SPC,209,10072,2,0.
$ ... 204 like lines cut
ENDDATA
